Circuit: * C:\Users\Nolas\OneDrive\Desktop\UNLV\summer 2022\EE 221L\Final project\spice\NoiseDetector.asc

Direct Newton iteration for .op point succeeded.
Ignoring empty pin current: Ix(u1:1)
Ignoring empty pin current: Ix(u1:2)

Date: Tue Aug 09 14:13:16 2022
Total elapsed time: 0.091 seconds.

tnom = 27
temp = 27
method = trap
totiter = 22
traniter = 0
tranpoints = 0
accept = 0
rejected = 0
matrix size = 9
fillins = 0
solver = Normal
Matrix Compiler1:      21 opcodes
Matrix Compiler2: 627 bytes object code size
